# Mol2 file generated by Materials Studio
@<TRIPOS>MOLECULE
structure
26 26 1 0 0 
SMALL
USER_CHARGES


@<TRIPOS>ATOM
1 N1A 14.8568 -2.13756 -12.0439 H 1 PE1 0
2 C 15.273 -3.37939 -12.4627 C.2 1 PE1 0.258
3 CA 14.4438 -4.62074 -12.3534 C.3 1 PE1 0.114
4 O 16.4286 -3.52008 -12.9285 O.2 1 PE1 -0.271
5 Ha1 13.4041 -4.38654 -12.5748 H 1 PE1 0.079
6 Ha2 14.4654 -4.91781 -11.3047 H 1 PE1 0.079
7 N 14.8294 -5.74664 -13.1922 N.4 1 PE1 0.135
8 C1S 15.5172 -6.88381 -12.5925 C.3 1 PE1 0.067
9 H1S 15.7512 -7.62882 -13.3577 H 1 PE1 0.077
10 C31 16.9101 -6.46492 -12.0684 C.3 1 PE1 -0.026
11 H13 17.4736 -6.00481 -12.8794 H 1 PE1 0.027
12 H33 17.4535 -7.34334 -11.7189 H 1 PE1 0.027
13 H23 16.8132 -5.75183 -11.2492 H 1 PE1 0.027
14 C11 14.6433 -7.61896 -11.6292 C.2 1 PE1 -0.011
15 C22 15.0156 -7.87867 -10.2878 C.2 1 PE1 -0.055
16 C66 13.3895 -8.10213 -12.076 C.2 1 PE1 -0.055
17 C33 14.175 -8.60855 -9.43184 C.2 1 PE1 -0.062
18 H22 15.9028 -7.53854 -9.92128 H 1 PE1 0.063
19 C55 12.5388 -8.8205 -11.217 C.2 1 PE1 -0.062
20 H66 13.0927 -7.93607 -13.0401 H 1 PE1 0.063
21 C44 12.9327 -9.07289 -9.89302 C.2 1 PE1 -0.062
22 HR3 14.4616 -8.78696 -8.46928 H 1 PE1 0.062
23 H55 11.6361 -9.15866 -11.5562 H 1 PE1 0.062
24 H44 12.3135 -9.58616 -9.26542 H 1 PE1 0.062
25 H1N 15.4731 -5.29645 -13.9764 H 1 PE1 0.229
26 H2N 13.8325 -5.96915 -13.6268 H 1 PE1 0.229
@<TRIPOS>BOND
1 2 1 1
2 3 2 1
3 2 4 2
4 3 5 1
5 3 6 1
6 7 8 1
7 8 9 1
8 8 10 1
9 8 14 1
10 10 11 1
11 10 12 1
12 10 13 1
13 14 15 1
14 14 16 2
15 15 17 2
16 15 18 1
17 16 19 1
18 16 20 1
19 17 21 1
20 17 22 1
21 19 21 2
22 19 23 1
23 21 24 1
24 3 7 1
25 7 25 1
26 7 26 1
@<TRIPOS>SUBSTRUCTURE
1 PE1 1
