# Mol2 file generated by Materials Studio
@<TRIPOS>MOLECULE
structure
25 25 1 0 0 
SMALL
USER_CHARGES


@<TRIPOS>ATOM
1 C1A 7.18629 -1.73995 -7.4103 H 1 PE2 0
2 N 7.01316 -2.53961 -6.33642 N.3 1 PE2 -0.325
3 C1S 6.79383 -3.95638 -6.37709 C.3 1 PE2 0.056
4 CA 7.04223 -1.95264 -4.94548 C.3 1 PE2 0.1
5 H1S 6.77862 -4.31204 -7.41298 H 1 PE2 0.058
6 C31 7.97366 -4.67856 -5.68988 C.3 1 PE2 -0.04
7 C1R 5.4987 -4.29359 -5.71815 C.2 1 PE2 -0.026
8 C 8.46323 -1.59923 -4.80509 C.2 1 PE2 0.243
9 Ha1 6.47662 -1.02811 -4.81721 H 1 PE2 0.06
10 Ha2 6.74267 -2.64853 -4.15707 H 1 PE2 0.06
11 H13 8.90429 -4.43857 -6.20681 H 1 PE2 0.025
12 H33 7.82443 -5.75934 -5.72969 H 1 PE2 0.025
13 H23 8.06397 -4.37282 -4.64576 H 1 PE2 0.025
14 C2R 5.47255 -5.1397 -4.58387 C.2 1 PE2 -0.057
15 C6R 4.27055 -3.77179 -6.19384 C.2 1 PE2 -0.057
16 O 9.2621 -2.06406 -5.64905 O.2 1 PE2 -0.273
17 N1A 8.86476 -0.770676 -3.81772 H 1 PE2 -0
18 C3R 4.25962 -5.45373 -3.94502 C.2 1 PE2 -0.062
19 H2R 6.33883 -5.53297 -4.21078 H 1 PE2 0.063
20 C5R 3.05675 -4.0876 -5.55771 C.2 1 PE2 -0.062
21 H6R 4.25244 -3.15305 -7.00614 H 1 PE2 0.063
22 C4R 3.05135 -4.92855 -4.43258 C.2 1 PE2 -0.062
23 H3R 4.25638 -6.0643 -3.12611 H 1 PE2 0.062
24 H5R 2.17861 -3.70399 -5.91115 H 1 PE2 0.062
25 H4R 2.17043 -5.15717 -3.9688 H 1 PE2 0.062
@<TRIPOS>BOND
1 1 2 1
2 2 3 1
3 4 2 1
4 3 5 1
5 3 6 1
6 3 7 1
7 4 8 1
8 4 9 1
9 4 10 1
10 6 11 1
11 6 12 1
12 6 13 1
13 7 14 1
14 7 15 2
15 8 16 2
16 8 17 1
17 14 18 2
18 14 19 1
19 15 20 1
20 15 21 1
21 18 22 1
22 18 23 1
23 20 22 2
24 20 24 1
25 22 25 1
@<TRIPOS>SUBSTRUCTURE
1 PE2 1
