# Mol2 file generated by Materials Studio
@<TRIPOS>MOLECULE
BlockPE1PE2PE3
74 76 3 0 0 
SMALL
USER_CHARGES


@<TRIPOS>ATOM
1 C 15.273 -3.37939 -12.4627 C.2 1 PE1 0.258
2 CA 14.4438 -4.62074 -12.3534 C.3 1 PE1 0.114
3 O 16.4286 -3.52008 -12.9285 O.2 1 PE1 -0.271
4 Ha1 13.4041 -4.38654 -12.5748 H 1 PE1 0.079
5 Ha2 14.4654 -4.91781 -11.3047 H 1 PE1 0.079
6 N 14.8294 -5.74664 -13.1922 N.4 1 PE1 0.135
7 C1S 15.5172 -6.88381 -12.5925 C.3 1 PE1 0.067
8 H1S 15.7512 -7.62882 -13.3577 H 1 PE1 0.077
9 C31 16.9101 -6.46492 -12.0684 C.3 1 PE1 -0.026
10 H13 17.4736 -6.00481 -12.8794 H 1 PE1 0.027
11 H33 17.4535 -7.34334 -11.7189 H 1 PE1 0.027
12 H23 16.8132 -5.75183 -11.2492 H 1 PE1 0.027
13 C11 14.6433 -7.61896 -11.6292 C.2 1 PE1 -0.011
14 C22 15.0156 -7.87867 -10.2878 C.2 1 PE1 -0.055
15 C66 13.3895 -8.10213 -12.076 C.2 1 PE1 -0.055
16 C33 14.175 -8.60855 -9.43184 C.2 1 PE1 -0.062
17 H22 15.9028 -7.53854 -9.92128 H 1 PE1 0.063
18 C55 12.5388 -8.8205 -11.217 C.2 1 PE1 -0.062
19 H66 13.0927 -7.93607 -13.0401 H 1 PE1 0.063
20 C44 12.9327 -9.07289 -9.89302 C.2 1 PE1 -0.062
21 HR3 14.4616 -8.78696 -8.46928 H 1 PE1 0.062
22 H55 11.6361 -9.15866 -11.5562 H 1 PE1 0.062
23 H44 12.3135 -9.58616 -9.26542 H 1 PE1 0.062
24 H1N 15.4731 -5.29645 -13.9764 H 1 PE1 0.229
25 H2N 13.8325 -5.96915 -13.6268 H 1 PE1 0.229
26 N 14.816 -2.01567 -12.0028 N.am 2 PE2 -0.325
27 C1S 15.5804 -0.805324 -12.0907 C.3 2 PE2 0.056
28 CA 13.4469 -1.84547 -11.3891 C.3 2 PE2 0.1
29 H1S 16.5606 -1.00296 -12.538 H 2 PE2 0.058
30 C31 14.8662 0.185545 -13.0362 C.3 2 PE2 -0.04
31 C1R 15.765 -0.215978 -10.7328 C.2 2 PE2 -0.026
32 C 12.5741 -2.05482 -12.5546 C.2 2 PE2 0.243
33 Ha1 13.1689 -2.60039 -10.6516 H 2 PE2 0.06
34 Ha2 13.2692 -0.859117 -10.952 H 2 PE2 0.06
35 H13 14.7688 -0.257195 -14.0288 H 2 PE2 0.025
36 H33 15.4486 1.10492 -13.1229 H 2 PE2 0.025
37 H23 13.8703 0.43231 -12.6633 H 2 PE2 0.025
38 C2R 15.2675 1.07646 -10.4407 C.2 2 PE2 -0.057
39 C6R 16.4241 -0.929626 -9.70171 C.2 2 PE2 -0.057
40 O 13.1074 -2.04616 -13.6869 O.2 2 PE2 -0.273
41 C3R 15.4225 1.63749 -9.16037 C.2 2 PE2 -0.062
42 H2R 14.7845 1.6202 -11.1585 H 2 PE2 0.063
43 C5R 16.5823 -0.368383 -8.42199 C.2 2 PE2 -0.062
44 H6R 16.7902 -1.86712 -9.87513 H 2 PE2 0.063
45 C4R 16.081 0.915508 -8.1511 C.2 2 PE2 -0.062
46 H3R 15.0566 2.57065 -8.96354 H 2 PE2 0.062
47 H5R 17.0593 -0.894332 -7.68776 H 2 PE2 0.062
48 H4R 16.1939 1.32335 -7.22144 H 2 PE2 0.062
49 N 11.0984 -2.31225 -12.3649 N.am 3 PE3 -0.325
50 C1S 10.2295 -2.52829 -13.5149 C.3 3 PE3 0.055
51 CA 10.5174 -2.35734 -11.0312 C.3 3 PE3 0.1
52 H1S 10.8028 -2.51087 -14.4449 H 3 PE3 0.058
53 C31 9.63955 -3.95773 -13.489 C.3 3 PE3 -0.04
54 C1R 9.26511 -1.3998 -13.6478 C.2 3 PE3 -0.026
55 C 10.6755 -3.63005 -10.2971 C.2 3 PE3 0.237
56 Ha1 10.9384 -1.55996 -10.4191 H 3 PE3 0.06
57 Ha2 9.45018 -2.14884 -11.0847 H 3 PE3 0.06
58 H13 10.4515 -4.67941 -13.5925 H 3 PE3 0.025
59 H33 8.94421 -4.09185 -14.3151 H 3 PE3 0.025
60 H23 9.11195 -4.14197 -12.5547 H 3 PE3 0.025
61 C2R 7.85989 -1.56474 -13.6112 C.2 3 PE3 -0.057
62 C6R 9.78398 -0.0922805 -13.7936 C.2 3 PE3 -0.057
63 O 11.2523 -4.62185 -10.7868 O.2 3 PE3 -0.273
64 N2A 10.2146 -3.76298 -9.0463 N.am 3 PE3 -0.367
65 C3R 7.00376 -0.452091 -13.6797 C.2 3 PE3 -0.062
66 H2R 7.44703 -2.49367 -13.5251 H 3 PE3 0.063
67 C5R 8.93083 1.02144 -13.8568 C.2 3 PE3 -0.062
68 H6R 10.794 0.0540579 -13.8442 H 3 PE3 0.063
69 H1C 10.3508 -4.60364 -8.58272 H 3 PE3 0.159
70 H2C 9.74976 -3.03206 -8.61588 H 3 PE3 0.159
71 C4R 7.53901 0.84227 -13.7905 C.2 3 PE3 -0.062
72 H3R 5.99135 -0.583582 -13.6422 H 3 PE3 0.062
73 H5R 9.32235 1.95959 -13.9457 H 3 PE3 0.062
74 H4R 6.91886 1.6513 -13.8272 H 3 PE3 0.062
@<TRIPOS>BOND
1 2 1 1
2 1 3 2
3 2 4 1
4 2 5 1
5 6 7 1
6 7 8 1
7 7 9 1
8 7 13 1
9 9 10 1
10 9 11 1
11 9 12 1
12 13 14 1
13 13 15 2
14 14 16 2
15 14 17 1
16 15 18 1
17 15 19 1
18 16 20 1
19 16 21 1
20 18 20 2
21 18 22 1
22 20 23 1
23 2 6 1
24 6 24 1
25 6 25 1
26 26 27 am
27 28 26 am
28 27 29 1
29 27 30 1
30 27 31 1
31 28 32 1
32 28 33 1
33 28 34 1
34 30 35 1
35 30 36 1
36 30 37 1
37 31 38 1
38 31 39 2
39 32 40 2
40 38 41 2
41 38 42 1
42 39 43 1
43 39 44 1
44 41 45 1
45 41 46 1
46 43 45 2
47 43 47 1
48 45 48 1
49 1 26 am
50 49 50 am
51 49 51 am
52 50 52 1
53 50 53 1
54 50 54 1
55 51 55 1
56 51 56 1
57 51 57 1
58 53 58 1
59 53 59 1
60 53 60 1
61 54 61 1
62 54 62 2
63 55 63 2
64 55 64 am
65 61 65 2
66 61 66 1
67 62 67 1
68 62 68 1
69 64 69 am
70 64 70 am
71 65 71 1
72 65 72 1
73 67 71 2
74 67 73 1
75 71 74 1
76 32 49 am
@<TRIPOS>SUBSTRUCTURE
1 PE1 1 **** **** Bloc
2 PE2 26 **** **** Bloc
3 PE3 49 **** **** Bloc
