# Mol2 file generated by Materials Studio
@<TRIPOS>MOLECULE
structure
13 12 1 0 0 
SMALL
USER_CHARGES


@<TRIPOS>ATOM
1 N1A 14.8568 -2.13756 -12.0439 H 1 SA1 0
2 C 15.273 -3.37939 -12.4627 C.2 1 SA1 0.258
3 CA 14.4438 -4.62074 -12.3534 C.3 1 SA1 0.114
4 O 16.4286 -3.52008 -12.9285 O.2 1 SA1 -0.271
5 Ha1 13.4041 -4.38654 -12.5748 H 1 SA1 0.079
6 Ha2 14.4654 -4.91781 -11.3047 H 1 SA1 0.079
7 N 14.8294 -5.74664 -13.1922 N.4 1 SA1 0.128
8 C1S 15.5172 -6.88381 -12.5925 C.3 1 SA1 0.02
9 H2S 16.1228 -7.4262 -13.3916 H 1 SA1 0.064
10 H1N 15.4731 -5.29645 -13.9764 H 1 SA1 0.228
11 H2N 13.8325 -5.96915 -13.6268 H 1 SA1 0.228
12 H3S 14.7503 -7.59938 -12.1459 H 1 SA1 0.064
13 H1S 16.2162 -6.51498 -11.771 H 1 SA1 0.064
@<TRIPOS>BOND
1 2 1 1
2 3 2 1
3 2 4 2
4 3 5 1
5 3 6 1
6 7 8 1
7 8 9 1
8 3 7 1
9 7 10 1
10 7 11 1
11 8 12 1
12 8 13 1
@<TRIPOS>SUBSTRUCTURE
1 SA1 1
