# Mol2 file generated by Materials Studio
@<TRIPOS>MOLECULE
structure
12 11 1 0 0 
SMALL
USER_CHARGES


@<TRIPOS>ATOM
1 C1A 7.18629 -1.73995 -7.4103 H 1 SA2 0
2 N 7.01316 -2.53961 -6.33642 N.3 1 SA2 -0.33
3 C1S 6.79383 -3.95638 -6.37709 C.3 1 SA2 0.001
4 CA 7.04223 -1.95264 -4.94548 C.3 1 SA2 0.1
5 H3S 7.3928 -4.45762 -5.54668 H 1 SA2 0.046
6 C 8.46323 -1.59923 -4.80509 C.2 1 SA2 0.244
7 Ha1 6.47662 -1.02811 -4.81721 H 1 SA2 0.06
8 Ha2 6.74267 -2.64853 -4.15707 H 1 SA2 0.06
9 O 9.2621 -2.06406 -5.64905 O.2 1 SA2 -0.273
10 N1A 8.86476 -0.770676 -3.81772 H 1 SA2 0
11 H1S 7.12988 -4.36409 -7.38725 H 1 SA2 0.046
12 H2S 5.68446 -4.17354 -6.22965 H 1 SA2 0.046
@<TRIPOS>BOND
1 1 2 1
2 2 3 1
3 4 2 1
4 3 5 1
5 4 6 1
6 4 7 1
7 4 8 1
8 6 9 2
9 6 10 1
10 3 11 1
11 3 12 1
@<TRIPOS>SUBSTRUCTURE
1 SA2 1
