# Mol2 file generated by Materials Studio
@<TRIPOS>MOLECULE
structure
14 13 1 0 0 
SMALL
USER_CHARGES


@<TRIPOS>ATOM
1 C1A 4.69126 -0.187352 -2.73967 H 1 SA3 0
2 N 4.13048 -0.959984 -1.7552 N.3 1 SA3 -0.335
3 C1S 3.54798 -2.2577 -2.07256 C.3 1 SA3 0.001
4 CA 4.11218 -0.504426 -0.372972 C.3 1 SA3 0.1
5 H1S 4.07599 -3.0688 -1.47013 H 1 SA3 0.047
6 C 5.35913 -0.707065 0.393691 C.2 1 SA3 0.24
7 Ha1 3.86296 0.555912 -0.338159 H 1 SA3 0.06
8 Ha2 3.31546 -1.0074 0.172426 H 1 SA3 0.06
9 O 6.36832 -1.25329 -0.0955651 O.2 1 SA3 -0.272
10 N2A 5.46196 -0.285529 1.66108 N.am 1 SA3 -0.368
11 H1C 6.29956 -0.414633 2.13219 H 1 SA3 0.159
12 H2C 4.70991 0.136873 2.09877 H 1 SA3 0.159
13 H3S 3.67367 -2.46864 -3.1858 H 1 SA3 0.047
14 H2S 2.43865 -2.25074 -1.80999 H 1 SA3 0.047
@<TRIPOS>BOND
1 1 2 1
2 2 3 1
3 2 4 1
4 3 5 1
5 4 6 1
6 4 7 1
7 4 8 1
8 6 9 2
9 6 10 am
10 10 11 am
11 10 12 am
12 3 13 1
13 3 14 1
@<TRIPOS>SUBSTRUCTURE
1 SA3 1
